data_image0
_chemical_formula_structural       Ge2P2Li20P2S24
_chemical_formula_sum              "Ge2 P4 Li20 S24"
_cell_length_a       8.753892349533546
_cell_length_b       8.74490606434982
_cell_length_c       12.791049036413446
_cell_angle_alpha    88.8757373896784
_cell_angle_beta     90.63235605119314
_cell_angle_gamma    90.19539769667274

_space_group_name_H-M_alt    "P 1"
_space_group_IT_number       1

loop_
  _space_group_symop_operation_xyz
  'x, y, z'

loop_
  _atom_site_type_symbol
  _atom_site_label
  _atom_site_symmetry_multiplicity
  _atom_site_fract_x
  _atom_site_fract_y
  _atom_site_fract_z
  _atom_site_occupancy
  Ge  Ge1       1.0  0.506139103286329  0.0036973848174432517  0.17899318810418022  1.0000
  Ge  Ge2       1.0  0.495164746171897  0.9883417377703057  0.6875093991154893  1.0000
  P   P1        1.0  0.004542959004431958  0.49924814298471376  0.31030874311128853  1.0000
  P   P2        1.0  0.988314471413083  0.4953415152029621  0.8070763502618725  1.0000
  Li  Li1       1.0  0.7709930239369708  0.23409931527166286  0.32767092360508193  1.0000
  Li  Li2       1.0  0.24647174783236078  0.2600961617892352  0.8317144877983135  1.0000
  Li  Li3       1.0  0.22972718338856438  0.8396716730915764  0.2446868711853966  1.0000
  Li  Li4       1.0  0.25669330017277925  0.7393418975463365  0.7339920272268252  1.0000
  Li  Li5       1.0  0.2598250754174762  0.2495167594696353  0.18009828942647657  1.0000
  Li  Li6       1.0  0.7505026043717627  0.22153825765937324  0.6699587017518522  1.0000
  Li  Li7       1.0  0.7783463994554913  0.8211622434646602  0.23731369020466608  1.0000
  Li  Li8       1.0  0.5151389382214004  0.017294931697264416  0.42997953734324373  1.0000
  Li  Li9       1.0  0.4830090377168186  0.024629747169361317  0.937619299312259  1.0000
  Li  Li10      1.0  0.002270640045405392  0.49783765597967206  0.057616822268018085  1.0000
  Li  Li11      1.0  0.9956455777994269  0.47166879784042903  0.5518317384866499  1.0000
  Li  Li12      1.0  0.24440633101118683  0.7574907553403943  0.9948617011302314  1.0000
  Li  Li13      1.0  0.25573636251188836  0.23737851799388182  0.49652735702950984  1.0000
  Li  Li14      1.0  0.7408701522554109  0.25472579400706286  0.9980356453283968  1.0000
  Li  Li15      1.0  0.7459266246340555  0.737653743431536  0.5149863319669162  1.0000
  Li  Li16      1.0  0.7305670733682967  0.7931644161078854  0.9372210017528095  1.0000
  Li  Li17      1.0  0.25953064153588906  0.7509848620630329  0.48608761091605934  1.0000
  Li  Li18      1.0  0.541840051065673  0.5466481894421293  0.7488292794553499  1.0000
  Li  Li19      1.0  0.9823681703258865  0.9616708852658137  0.7363146147006895  1.0000
  Li  Li20      1.0  0.5161811074177622  0.5195142910222795  0.23065513919684852  1.0000
  P   P3        1.0  0.49332824250511803  0.5030297247332273  0.9919724012697622  1.0000
  P   P4        1.0  0.003157500060260884  0.9868863076576359  0.4917917588021747  1.0000
  S   S1        1.0  0.47235685398857846  0.6971141316118099  0.8977895384513749  1.0000
  S   S2        1.0  0.8066801018448889  0.9702930220940295  0.4028216089595675  1.0000
  S   S3        1.0  0.5067406027522232  0.3206548103407603  0.8936999128353023  1.0000
  S   S4        1.0  0.1945715952576744  0.0009448277301044462  0.4006958163407448  1.0000
  S   S5        1.0  0.012765904984274665  0.7919612585856848  0.5858842313537737  1.0000
  S   S6        1.0  0.3094721234789584  0.5065630559965011  0.09092053264102437  1.0000
  S   S7        1.0  0.006506012359322716  0.17178445102415776  0.5884737578010625  1.0000
  S   S8        1.0  0.6892845620894462  0.5127144471473483  0.08009907429749957  1.0000
  S   S9        1.0  0.4848264702696467  0.7605732469674784  0.603943385823417  1.0000
  S   S10       1.0  0.7122735429446397  0.9938475486088517  0.07871462490945015  1.0000
  S   S11       1.0  0.5063939960473631  0.18927316795226842  0.5784256268314291  1.0000
  S   S12       1.0  0.2866223768229656  0.0038608476055503257  0.08706726160490999  1.0000
  S   S13       1.0  0.9971646857828188  0.6987219241062128  0.8885462141597484  1.0000
  S   S14       1.0  0.19728677120933616  0.49685818102938223  0.4056731491867574  1.0000
  S   S15       1.0  0.9919062423283097  0.31191756797444586  0.9098289667956658  1.0000
  S   S16       1.0  0.808547930676683  0.49872316374183956  0.39944745209052646  1.0000
  S   S17       1.0  0.5015502011687989  0.21113726722869694  0.2793349201104027  1.0000
  S   S18       1.0  0.28836076814016465  0.9962869604445691  0.7909106904066137  1.0000
  S   S19       1.0  0.5040052153253772  0.8003979888717683  0.2910135367016853  1.0000
  S   S20       1.0  0.703375601146944  0.003834892860813006  0.790885912294683  1.0000
  S   S21       1.0  0.9928498079032826  0.30771944781340593  0.22056270811305193  1.0000
  S   S22       1.0  0.8058122014541221  0.49373671036562505  0.704372644313783  1.0000
  S   S23       1.0  0.010390715647287533  0.6853478021797156  0.20854508239363612  1.0000
  S   S24       1.0  0.17955877634802922  0.47609919150773033  0.7148908011664878  1.0000
