data_image0
_chemical_formula_structural       Li4Al4O8
_chemical_formula_sum              "Li4 Al4 O8"
_cell_length_a       5.209311565016458
_cell_length_b       5.209617364358127
_cell_length_c       6.318381727771671
_cell_angle_alpha    90.0007675685435
_cell_angle_beta     89.99955979631864
_cell_angle_gamma    89.99963255429518

_space_group_name_H-M_alt    "P 1"
_space_group_IT_number       1

loop_
  _space_group_symop_operation_xyz
  'x, y, z'

loop_
  _atom_site_type_symbol
  _atom_site_label
  _atom_site_symmetry_multiplicity
  _atom_site_fract_x
  _atom_site_fract_y
  _atom_site_fract_z
  _atom_site_occupancy
  Li  Li1       1.0  0.31256756523992124  0.6872220501110896  0.7500203921641181  1.0000
  Li  Li2       1.0  0.6873062680421121  0.3127054459794052  0.24996999393966288  1.0000
  Li  Li3       1.0  0.18727791313314382  0.18712760708266055  0.49998474356605543  1.0000
  Li  Li4       1.0  0.812795186600672  0.8128096881289741  5.3829686864094805e-05  1.0000
  Al  Al1       1.0  0.6757944199356336  0.3241658063775431  0.749986878758432  1.0000
  Al  Al2       1.0  0.32412105138254516  0.675867279319812  0.2500541280248775  1.0000
  Al  Al3       1.0  0.8242360122563784  0.8243784136638551  0.49996830814361803  1.0000
  Al  Al4       1.0  0.17578483434275055  0.17572679982320022  1.6404680683245413e-05  1.0000
  O   O1        1.0  0.8363362483439122  0.20901113515877204  0.9781787026208477  1.0000
  O   O2        1.0  0.16366604117870878  0.790959497052065  0.4781739052085096  1.0000
  O   O3        1.0  0.7090912612033787  0.663846313762434  0.7282409089275325  1.0000
  O   O4        1.0  0.29099143088454354  0.3360922132036631  0.22818484288509983  1.0000
  O   O5        1.0  0.7912170690139845  0.16395852103595057  0.521739986802511  1.0000
  O   O6        1.0  0.20884448987649565  0.8361071446519122  0.021800401133299098  1.0000
  O   O7        1.0  0.6638524423474826  0.7090710574552347  0.27181073259252353  1.0000
  O   O8        1.0  0.3361177654220745  0.2909510192350746  0.7718158471843347  1.0000
